/*--------------------------------*- C++ -*----------------------------------*\
| =========                 |                                                 |
| \\      /  F ield         | OpenFOAM: The Open Source CFD Toolbox           |
|  \\    /   O peration     | Version:  5                                     |
|   \\  /    A nd           | Web:      www.OpenFOAM.org                      |
|    \\/     M anipulation  |                                                 |
\*---------------------------------------------------------------------------*/
FoamFile
{
    version     2.0;
    format      ascii;
    class       dictionary;
    location    "system";
    object      blockMeshDict;
}
// * * * * * * * * * * * * * * * * * * * * * * * * * * * * * * * * * * * * * //

convertToMeters 1;

vertices
(
    (-1 -1 -0.5) //0
    ( 1 -1 -0.5) //1
    ( 1  1 -0.5) //2
    (-1  1 -0.5) //3
    (-1 -1  0.5) //4
    ( 1 -1  0.5) //5
    ( 1  1  0.5) //6
    (-1  1  0.5) //7
);

blocks
(
    hex (0 1 2 3 4 5 6 7) cavity (1 1 1) simpleGrading (1 1 1)
);

edges
(
);

boundary
(   
    movingWall
    {
        type wall;
        faces
        (
            (3 7 6 2) // top
        );
    }
    fixedWalls
    {
        type wall;
        faces
        (
            (1 5 4 0) // bottom
            (0 4 7 3) // left
            (2 6 5 1) // right
        );
    }
    frontAndBack
    {
        type empty;
        faces
        (
            (0 3 2 1)
            (4 5 6 7)
        );
    }
);

mergePatchPairs
(
);

// ************************************************************************* //
