/*
crossSection dictionary
Generated by serpentToFoamXS
04-Feb-2018
From SERPENT results file: cavity_nominal_res
*/

/*
physical delayed spectrum
effective delayed neutron fraction
*/

FoamFile
{
    version     2.0;
    format      ascii;
    class       dictionary;
    location    "constant";
    object      nuclearData;
}

energyGroups 6 ;
precGroups 8 ;

zones
(
    cavity
    {
        fuelFraction 1.000000e+00 ;
        IV nonuniform List<scalar> 6 ( 4.004000e-08 7.398950e-08 2.617720e-07 6.693950e-07 1.559420e-06 4.255240e-06 );
        D nonuniform List<scalar> 6 ( 2.793370e-02 1.835170e-02 1.128550e-02 1.445020e-02 1.395110e-02 1.281110e-02 );
        nuSigmaEff nonuniform List<scalar> 6 ( 3.135800e-01 2.729640e-01 3.655090e-01 6.195190e-01 1.288530e+00 3.487750e+00 );
        sigmaPow nonuniform List<scalar> 6 ( 3.559447e-12 3.475448e-12 4.867954e-12 8.257782e-12 1.716095e-11 4.645057e-11 );
        scatteringMatrix  6  6 (
        ( 1.087070e+01 5.248410e+00 4.023930e-01 1.122930e-02 2.491280e-03 3.498990e-04 )
        ( 0.000000e+00 1.841340e+01 3.199810e+00 2.286660e-03 2.170680e-04 1.585810e-05 )
        ( 0.000000e+00 0.000000e+00 2.989910e+01 1.640090e+00 1.706800e-03 1.188430e-04 )
        ( 0.000000e+00 0.000000e+00 0.000000e+00 2.179050e+01 1.910840e+00 6.818110e-07 )
        ( 0.000000e+00 0.000000e+00 0.000000e+00 0.000000e+00 2.276130e+01 1.066730e+00 )
        ( 0.000000e+00 0.000000e+00 0.000000e+00 0.000000e+00 0.000000e+00 2.383250e+01 )
        );
        sigmaDisapp nonuniform List<scalar> 6 ( 5.718000e+00 3.365600e+00 1.975300e+00 2.466200e+00 2.317500e+00 3.419600e+00 );
        chiPrompt nonuniform List<scalar> 6 ( 3.536970e-01 5.236160e-01 1.211820e-01 1.338520e-03 1.576310e-04 8.370310e-06 );
        chiDelayed nonuniform List<scalar> 6 ( 3.821820e-03 3.865260e-01 5.838700e-01 2.273860e-02 2.602900e-03 4.404710e-04 );
        Beta nonuniform List<scalar> 8 ( 2.042060e-04 1.005640e-03 6.756040e-04 1.259680e-03 2.144710e-03 5.125220e-04 6.024270e-04 1.542480e-04 );
        lambda nonuniform List<scalar> 8 ( 1.246670e-02 2.829170e-02 4.252440e-02 1.330420e-01 2.924670e-01 6.664880e-01 1.634780e+00 3.554600e+00 );
        discFactor nonuniform List<scalar> 6 ( 1 1 1 1 1 1 );
        integralFlux nonuniform List<scalar> 6 ( 1.000000e+00 1.000000e+00 1.000000e+00 1.000000e+00 1.000000e+00 1.000000e+00 );
        ScNo 2e8;
    }
);
