/*
crossSection dictionary
Generatd by serpentToFoamXS
22-May-2017
From SERPENT results file: c1u5_res
*/

/*
physical delayed neutron fraction and spectrum
*/

FoamFile
{
    version     2.0;
    format      ascii;
    class       dictionary;
    location    "constant";
    object      expRadial;
}

axialOrientation    (0 0 1);
radialOrientation   (1 0 0);

zones
{

}
