FoamFile
{
    version     2.0;
    format      ascii;
    class       dictionary;
    location    "constant";
    object      rhoCool;
}

// Generated on 24-Jul-2018
// by serpentToFoamXS version 24-July-2018
// Data origin: cavity_low_rho_res

// delayed neutron spectrum: physical
// delayed neutron fraction: effective

// rhoCoolPerturbed    1900;
//
// zones
// {
//     cavity
//     {
//         D               nonuniform List<scalar> 6 ( 2.941800e-02 1.932170e-02 1.187940e-02 1.521240e-02 1.468470e-02 1.348400e-02 );
//         sigmaRem        nonuniform List<scalar> 6 ( 5.432300e+00 3.196100e+00 1.874000e+00 2.339600e+00 2.200400e+00 3.246500e+00 );
//         scatteringMatrix 6 6
//         (
//             ( 1.032530e+01 0.000000e+00 0.000000e+00 0.000000e+00 0.000000e+00 0.000000e+00 )
//             ( 4.986120e+00 1.749270e+01 0.000000e+00 0.000000e+00 0.000000e+00 0.000000e+00 )
//             ( 3.811960e-01 3.038300e+00 2.840800e+01 0.000000e+00 0.000000e+00 0.000000e+00 )
//             ( 1.073510e-02 2.184290e-03 1.556280e+00 2.070410e+01 0.000000e+00 0.000000e+00 )
//             ( 2.492320e-03 2.149010e-04 1.608090e-03 1.812210e+00 2.162400e+01 0.000000e+00 )
//             ( 4.359100e-04 1.823180e-05 1.135060e-04 1.020080e-06 1.011150e+00 2.264350e+01 )
//         );
//         nuSigmaF        nonuniform List<scalar> 6 ( 2.978690e-01 2.593270e-01 3.472020e-01 5.884190e-01 1.223790e+00 3.313990e+00 );
//         kappaFission    nonuniform List<scalar> 6 ( 3.381143e-12 3.301778e-12 4.624122e-12 7.843261e-12 1.629863e-11 4.413637e-11 );
//     }
// }

fieldName           rho;
interpolationMode   linear;
extrapolate         true;

branching
{
    rho1900
    {
        perturbedValue  1900;

        zones
        {
            cavity
            {
                D               ( 2.941800e-02 1.932170e-02 1.187940e-02 1.521240e-02 1.468470e-02 1.348400e-02 );
                rem             ( 5.432300e+00 3.196100e+00 1.874000e+00 2.339600e+00 2.200400e+00 3.246500e+00 );
                scatteringMatrix
                (
                    ( 1.032530e+01 0.000000e+00 0.000000e+00 0.000000e+00 0.000000e+00 0.000000e+00 )
                    ( 4.986120e+00 1.749270e+01 0.000000e+00 0.000000e+00 0.000000e+00 0.000000e+00 )
                    ( 3.811960e-01 3.038300e+00 2.840800e+01 0.000000e+00 0.000000e+00 0.000000e+00 )
                    ( 1.073510e-02 2.184290e-03 1.556280e+00 2.070410e+01 0.000000e+00 0.000000e+00 )
                    ( 2.492320e-03 2.149010e-04 1.608090e-03 1.812210e+00 2.162400e+01 0.000000e+00 )
                    ( 4.359100e-04 1.823180e-05 1.135060e-04 1.020080e-06 1.011150e+00 2.264350e+01 )
                );
                nuFission       ( 2.978690e-01 2.593270e-01 3.472020e-01 5.884190e-01 1.223790e+00 3.313990e+00 );
                kappaFission    ( 3.381143e-12 3.301778e-12 4.624122e-12 7.843261e-12 1.629863e-11 4.413637e-11 );
            }
        }
    }
}
