/*
crossSection dictionary
Generated by serpentToFoamXS
04-Feb-2018
From SERPENT results file: cavity_low_rho_res
*/

/*
physical delayed spectrum
effective delayed neutron fraction
*/

FoamFile
{
    version     2.0;
    format      ascii;
    class       dictionary;
    location    "constant";
    object      nuclearDataRhoCool;
}

energyGroups 6 ;
precGroups 8 ;

rhoCoolRef 2.000000e+03 ;
rhoCoolPerturbed 1.900000e+03 ;

zones
(
    cavity
    {
        IV nonuniform List<scalar> 6 ( 4.003650e-08 7.398110e-08 2.617230e-07 6.692330e-07 1.558850e-06 4.255040e-06 );
        D nonuniform List<scalar> 6 ( 2.941800e-02 1.932170e-02 1.187940e-02 1.521240e-02 1.468470e-02 1.348400e-02 );
        nuSigmaEff nonuniform List<scalar> 6 ( 2.978690e-01 2.593270e-01 3.472020e-01 5.884190e-01 1.223790e+00 3.313990e+00 );
        sigmaPow nonuniform List<scalar> 6 ( 3.381143e-12 3.301778e-12 4.624122e-12 7.843261e-12 1.629863e-11 4.413637e-11 );
        scatteringMatrix  6  6 (
        ( 1.032530e+01 4.986120e+00 3.811960e-01 1.073510e-02 2.492320e-03 4.359100e-04 )
        ( 0.000000e+00 1.749270e+01 3.038300e+00 2.184290e-03 2.149010e-04 1.823180e-05 )
        ( 0.000000e+00 0.000000e+00 2.840800e+01 1.556280e+00 1.608090e-03 1.135060e-04 )
        ( 0.000000e+00 0.000000e+00 0.000000e+00 2.070410e+01 1.812210e+00 1.020080e-06 )
        ( 0.000000e+00 0.000000e+00 0.000000e+00 0.000000e+00 2.162400e+01 1.011150e+00 )
        ( 0.000000e+00 0.000000e+00 0.000000e+00 0.000000e+00 0.000000e+00 2.264350e+01 )
        );
        sigmaDisapp nonuniform List<scalar> 6 ( 5.432300e+00 3.196100e+00 1.874000e+00 2.339600e+00 2.200400e+00 3.246500e+00 );
        chiPrompt nonuniform List<scalar> 6 ( 3.538550e-01 5.235040e-01 1.211170e-01 1.361050e-03 1.535490e-04 9.429070e-06 );
        chiDelayed nonuniform List<scalar> 6 ( 3.956070e-03 3.914040e-01 5.782140e-01 2.302430e-02 2.951750e-03 4.498310e-04 );
        Beta nonuniform List<scalar> 8 ( 1.730310e-04 1.029070e-03 6.704290e-04 1.224630e-03 1.910500e-03 5.721090e-04 5.805690e-04 1.633040e-04 );
        lambda nonuniform List<scalar> 8 ( 1.246670e-02 2.829170e-02 4.252440e-02 1.330420e-01 2.924670e-01 6.664880e-01 1.634780e+00 3.554600e+00 );
        discFactor nonuniform List<scalar> 6 ( 1 1 1 1 1 1 );
        integralFlux nonuniform List<scalar> 6 ( 1.000000e+00 1.000000e+00 1.000000e+00 1.000000e+00 1.000000e+00 1.000000e+00 );
    }
);
